Version 4.1
SHEET 1 880 680
WIRE 240 0 0 0
WIRE 400 0 320 0
WIRE -80 192 -128 192
WIRE 0 192 0 0
WIRE 0 192 -16 192
WIRE 32 192 0 192
WIRE 224 192 96 192
WIRE 96 224 96 192
WIRE 400 224 400 0
WIRE 400 224 320 224
WIRE 224 256 176 256
WIRE 96 320 96 304
WIRE 176 352 176 256
WIRE 400 352 400 224
WIRE 400 352 176 352
FLAG 96 320 0
FLAG 272 112 0
FLAG 272 336 0
FLAG -128 272 0
SYMBOL lm741\\LM741 256 224 R0
SYMATTR InstName U1
SYMBOL cap 32 208 R270
WINDOW 0 32 32 VTop 2
WINDOW 3 0 32 VBottom 2
SYMATTR InstName C1
SYMATTR Value 22n
SYMBOL cap -80 208 R270
WINDOW 0 32 32 VTop 2
WINDOW 3 0 32 VBottom 2
SYMATTR InstName C2
SYMATTR Value 22n
SYMBOL voltage 272 208 R180
WINDOW 0 24 96 Left 2
WINDOW 3 36 61 Left 2
WINDOW 123 0 0 Left 0
WINDOW 39 0 0 Left 0
SYMATTR InstName V1
SYMATTR Value 5
SYMBOL voltage 272 352 R180
WINDOW 0 -66 34 Left 2
WINDOW 3 24 16 Left 2
WINDOW 123 0 0 Left 0
WINDOW 39 0 0 Left 0
SYMATTR InstName V2
SYMATTR Value 5
SYMBOL res 112 320 R180
WINDOW 0 36 76 Left 2
WINDOW 3 36 40 Left 2
SYMATTR InstName R1
SYMATTR Value 1k
SYMBOL res 336 -16 R90
WINDOW 0 0 56 VBottom 2
WINDOW 3 32 56 VTop 2
SYMATTR InstName R2
SYMATTR Value 1k
SYMBOL voltage -128 176 R0
WINDOW 123 24 124 Left 2
WINDOW 39 0 0 Left 0
SYMATTR InstName V3
SYMATTR Value ""
SYMATTR Value2 AC 10
TEXT -160 360 Left 2 !.ac dec 1000 1k 10Meg
