Version 4.1
SHEET 1 880 680
WIRE 224 -64 -32 -64
WIRE 368 -64 288 -64
WIRE -112 128 -160 128
WIRE -32 128 -32 -64
WIRE -16 128 -32 128
WIRE 192 128 64 128
WIRE 368 160 368 -64
WIRE 368 160 288 160
WIRE 64 192 64 128
WIRE 192 192 144 192
WIRE 144 288 144 192
WIRE 368 288 368 160
WIRE 368 288 144 288
FLAG 64 256 0
FLAG 240 48 0
FLAG 240 272 0
FLAG -160 208 0
SYMBOL lm741\\LM741 224 160 R0
SYMATTR InstName U1
SYMBOL cap 288 -80 R90
WINDOW 0 0 32 VBottom 2
WINDOW 3 32 32 VTop 2
SYMATTR InstName C1
SYMATTR Value 22n
SYMBOL cap 80 256 R180
WINDOW 0 24 56 Left 2
WINDOW 3 24 8 Left 2
SYMATTR InstName C2
SYMATTR Value 22n
SYMBOL voltage 240 144 R180
WINDOW 0 24 96 Left 2
WINDOW 3 36 61 Left 2
WINDOW 123 0 0 Left 0
WINDOW 39 0 0 Left 0
SYMATTR InstName V1
SYMATTR Value 5
SYMBOL voltage 240 288 R180
WINDOW 0 -66 34 Left 2
WINDOW 3 24 16 Left 2
WINDOW 123 0 0 Left 0
WINDOW 39 0 0 Left 0
SYMATTR InstName V2
SYMATTR Value 5
SYMBOL res 80 112 R90
WINDOW 0 0 56 VBottom 2
WINDOW 3 32 56 VTop 2
SYMATTR InstName R1
SYMATTR Value 1k
SYMBOL res -16 112 R90
WINDOW 0 0 56 VBottom 2
WINDOW 3 32 56 VTop 2
SYMATTR InstName R2
SYMATTR Value 1k
SYMBOL voltage -160 112 R0
WINDOW 123 24 124 Left 2
WINDOW 39 0 0 Left 0
SYMATTR InstName V3
SYMATTR Value ""
SYMATTR Value2 AC 10
TEXT 336 -200 Left 2 !.ac dec 1000 1000 1Meg
