Version 4.1
SHEET 1 880 680
WIRE 176 -48 112 -48
WIRE 288 -48 240 -48
WIRE 512 -48 288 -48
WIRE 288 32 288 -48
WIRE 16 144 -96 144
WIRE 112 144 112 -48
WIRE 112 144 96 144
WIRE 144 144 112 144
WIRE 288 144 288 112
WIRE 288 144 208 144
WIRE 336 144 288 144
WIRE 512 176 512 -48
WIRE 512 176 432 176
WIRE 336 208 288 208
WIRE 288 304 288 208
FLAG 288 304 0
FLAG 384 64 0
FLAG 384 288 0
FLAG -96 224 0
SYMBOL lm741\\LM741 368 176 M180
SYMATTR InstName U1
SYMBOL cap 144 160 R270
WINDOW 0 32 32 VTop 2
WINDOW 3 0 32 VBottom 2
SYMATTR InstName C1
SYMATTR Value 330p
SYMBOL cap 176 -32 R270
WINDOW 0 32 32 VTop 2
WINDOW 3 0 32 VBottom 2
SYMATTR InstName C2
SYMATTR Value 330p
SYMBOL voltage 384 48 R0
WINDOW 0 24 96 Left 2
WINDOW 3 36 61 Left 2
WINDOW 123 0 0 Left 0
WINDOW 39 0 0 Left 0
SYMATTR InstName V1
SYMATTR Value 5
SYMBOL voltage 384 192 R0
WINDOW 0 -66 34 Left 2
WINDOW 3 24 16 Left 2
WINDOW 123 0 0 Left 0
WINDOW 39 0 0 Left 0
SYMATTR InstName V2
SYMATTR Value 5
SYMBOL res 0 160 R270
WINDOW 0 32 56 VTop 2
WINDOW 3 0 56 VBottom 2
SYMATTR InstName R1
SYMATTR Value 47k
SYMBOL res 304 128 R180
WINDOW 0 36 76 Left 2
WINDOW 3 36 40 Left 2
SYMATTR InstName R2
SYMATTR Value 30k
SYMBOL voltage -96 128 R0
WINDOW 123 24 124 Left 2
WINDOW 39 0 0 Left 0
SYMATTR Value2 AC 1
SYMATTR InstName V3
SYMATTR Value ""
TEXT -96 368 Left 2 !.ac dec 1000 100 10Meg
