Version 4.1
SHEET 1 1056 680
WIRE 32 80 -64 80
WIRE 208 80 112 80
WIRE 336 80 288 80
WIRE 432 80 336 80
WIRE 592 80 496 80
WIRE 720 80 672 80
WIRE -64 112 -64 80
WIRE 336 144 336 80
WIRE 720 144 720 80
WIRE -64 304 -64 192
WIRE 336 304 336 224
WIRE 336 304 -64 304
WIRE 656 304 336 304
WIRE 720 304 720 224
WIRE 720 304 656 304
FLAG 656 304 0
FLAG 272 32 0
FLAG 224 -48 0
SYMBOL voltage -64 96 R0
WINDOW 123 0 0 Left 0
WINDOW 39 0 0 Left 0
SYMATTR InstName V1
SYMATTR Value 80
SYMBOL res 128 64 R90
WINDOW 0 0 56 VBottom 2
WINDOW 3 32 56 VTop 2
SYMATTR InstName R1
SYMATTR Value 20
SYMBOL sw 304 80 R90
SYMATTR InstName SW
SYMBOL ind 320 128 R0
SYMATTR InstName L1
SYMATTR Value 10m
SYMBOL cap 496 64 R90
WINDOW 0 0 32 VBottom 2
WINDOW 3 32 32 VTop 2
SYMATTR InstName C1
SYMATTR Value 4µ
SYMBOL res 688 64 R90
WINDOW 0 0 56 VBottom 2
WINDOW 3 32 56 VTop 2
SYMATTR InstName R2
SYMATTR Value 60
SYMBOL voltage 224 48 R180
WINDOW 0 24 96 Left 2
WINDOW 3 24 16 Left 2
WINDOW 123 0 0 Left 0
WINDOW 39 0 0 Left 0
SYMATTR InstName V2
SYMATTR Value PULSE(1 0 0 1u 1u 10)
SYMBOL voltage 720 240 R180
WINDOW 0 24 96 Left 2
WINDOW 3 24 16 Left 2
SYMATTR InstName V3
SYMATTR Value 40
TEXT 576 -8 Left 2 !.model SW SW(Ron=0.001u, Roff=1Meg)
TEXT -96 328 Left 2 !.tran .003
