Version 4.1
SHEET 1 1160 1556
WIRE -896 -128 -960 -128
WIRE -784 -128 -832 -128
WIRE -560 -128 -784 -128
WIRE 1056 -80 640 -80
WIRE -784 -48 -784 -128
WIRE -1376 64 -1568 64
WIRE -1056 64 -1376 64
WIRE -960 64 -960 -128
WIRE -960 64 -976 64
WIRE -928 64 -960 64
WIRE -784 64 -784 32
WIRE -784 64 -864 64
WIRE -736 64 -784 64
WIRE 64 64 -160 64
WIRE -560 96 -560 -128
WIRE -560 96 -640 96
WIRE -496 96 -560 96
WIRE -384 96 -416 96
WIRE -288 96 -304 96
WIRE 320 96 256 96
WIRE 480 96 400 96
WIRE -736 128 -784 128
WIRE -160 144 -160 64
WIRE 256 176 256 96
WIRE -1872 224 -1872 208
WIRE -784 224 -784 128
WIRE -288 256 -288 96
WIRE -160 256 -160 224
WIRE -160 256 -288 256
WIRE -112 256 -160 256
WIRE -1872 272 -1872 224
WIRE 64 288 64 64
WIRE 64 288 -16 288
WIRE 112 288 64 288
WIRE 256 288 256 256
WIRE 256 288 192 288
WIRE 304 288 256 288
WIRE -112 320 -160 320
WIRE 480 320 480 96
WIRE 480 320 400 320
WIRE 528 320 480 320
WIRE -912 336 -976 336
WIRE -800 336 -848 336
WIRE -576 336 -800 336
WIRE 912 336 912 224
WIRE 912 336 768 336
WIRE 960 336 960 240
WIRE 1056 336 1056 -80
WIRE 1056 336 960 336
WIRE 1104 336 1056 336
WIRE 304 352 256 352
WIRE 704 352 672 352
WIRE -1872 368 -1872 352
WIRE -1776 368 -1872 368
WIRE 672 400 672 352
WIRE 960 400 960 336
WIRE -800 416 -800 336
WIRE -160 416 -160 320
WIRE 912 416 912 336
WIRE 256 448 256 352
WIRE -1872 480 -1872 448
WIRE -1568 512 -1568 64
WIRE -1376 528 -1376 64
WIRE -1072 528 -1376 528
WIRE -976 528 -976 336
WIRE -976 528 -992 528
WIRE -944 528 -976 528
WIRE -800 528 -800 496
WIRE -800 528 -880 528
WIRE -752 528 -800 528
WIRE -576 560 -576 336
WIRE -576 560 -656 560
WIRE -528 560 -576 560
WIRE -400 560 -448 560
WIRE -288 560 -288 256
WIRE -288 560 -320 560
WIRE -752 592 -800 592
WIRE -800 688 -800 592
WIRE -912 864 -976 864
WIRE -800 864 -848 864
WIRE -576 864 -800 864
WIRE -800 944 -800 864
WIRE -1376 1056 -1376 528
WIRE -1072 1056 -1376 1056
WIRE -976 1056 -976 864
WIRE -976 1056 -992 1056
WIRE -944 1056 -976 1056
WIRE -800 1056 -800 1024
WIRE -800 1056 -880 1056
WIRE -752 1056 -800 1056
WIRE -576 1088 -576 864
WIRE -576 1088 -656 1088
WIRE -528 1088 -576 1088
WIRE -416 1088 -448 1088
WIRE -288 1088 -288 560
WIRE -288 1088 -336 1088
WIRE -752 1120 -800 1120
WIRE -800 1216 -800 1120
FLAG 960 576 0
FLAG 960 64 0
FLAG 1104 416 0
FLAG 736 304 +v
FLAG 736 368 -v
FLAG -784 224 0
FLAG -688 -16 0
FLAG -688 208 0
FLAG -800 688 0
FLAG -704 448 0
FLAG -704 672 0
FLAG -800 1216 0
FLAG -704 976 0
FLAG -704 1200 0
FLAG -1568 592 0
FLAG -1776 368 0
FLAG -1872 224 +v
FLAG -1872 480 -v
FLAG 672 400 0
FLAG 256 448 0
FLAG 352 208 0
FLAG 352 432 0
FLAG -160 416 0
FLAG -64 176 0
FLAG -64 400 0
SYMBOL OpAmps\\UniversalOpAmp 736 336 R0
SYMATTR InstName U1
SYMBOL nmos 912 496 M180
SYMATTR InstName M1
SYMBOL pmos 912 144 R0
SYMATTR InstName M2
SYMBOL voltage 960 160 R180
WINDOW 0 24 96 Left 2
WINDOW 3 24 16 Left 2
WINDOW 123 0 0 Left 0
WINDOW 39 0 0 Left 0
SYMATTR InstName V1
SYMATTR Value 5
SYMBOL voltage 960 592 R180
WINDOW 123 0 0 Left 0
WINDOW 39 0 0 Left 0
SYMATTR InstName V2
SYMATTR Value 5
SYMBOL res 1088 320 R0
SYMATTR InstName R1
SYMATTR Value 8
SYMBOL lm741\\LM741 -704 96 M180
SYMATTR InstName U6
SYMBOL cap -928 80 R270
WINDOW 0 32 32 VTop 2
WINDOW 3 0 32 VBottom 2
SYMATTR InstName C1
SYMATTR Value 110n
SYMBOL cap -896 -112 R270
WINDOW 0 32 32 VTop 2
WINDOW 3 0 32 VBottom 2
SYMATTR InstName C2
SYMATTR Value 110n
SYMBOL voltage -688 -32 R0
WINDOW 0 24 96 Left 2
WINDOW 3 36 61 Left 2
WINDOW 123 0 0 Left 0
WINDOW 39 0 0 Left 0
SYMATTR InstName V3
SYMATTR Value 5
SYMBOL res -1072 80 R270
WINDOW 0 32 56 VTop 2
WINDOW 3 0 56 VBottom 2
SYMATTR InstName R6
SYMATTR Value 5.1k
SYMBOL res -768 48 R180
WINDOW 0 36 76 Left 2
WINDOW 3 36 40 Left 2
SYMATTR InstName R7
SYMATTR Value 10k
SYMBOL voltage -1568 496 R0
WINDOW 123 24 124 Left 2
WINDOW 39 0 0 Left 0
WINDOW 3 -69 -8 Bottom 2
SYMATTR Value2 AC 1
SYMATTR Value SINE(0 1 200)
SYMATTR InstName V5
SYMBOL lm741\\LM741 -720 560 M180
SYMATTR InstName U7
SYMBOL cap -944 544 R270
WINDOW 0 32 32 VTop 2
WINDOW 3 0 32 VBottom 2
SYMATTR InstName C3
SYMATTR Value 22n
SYMBOL cap -912 352 R270
WINDOW 0 32 32 VTop 2
WINDOW 3 0 32 VBottom 2
SYMATTR InstName C4
SYMATTR Value 22n
SYMBOL voltage -704 432 R0
WINDOW 0 24 96 Left 2
WINDOW 3 36 61 Left 2
WINDOW 123 0 0 Left 0
WINDOW 39 0 0 Left 0
SYMATTR InstName V6
SYMATTR Value 5
SYMBOL voltage -704 576 R0
WINDOW 0 -66 34 Left 2
WINDOW 3 24 16 Left 2
WINDOW 123 0 0 Left 0
WINDOW 39 0 0 Left 0
SYMATTR InstName V7
SYMATTR Value 5
SYMBOL res -1088 544 R270
WINDOW 0 32 56 VTop 2
WINDOW 3 0 56 VBottom 2
SYMATTR InstName R8
SYMATTR Value 5.1k
SYMBOL res -784 512 R180
WINDOW 0 36 76 Left 2
WINDOW 3 36 40 Left 2
SYMATTR InstName R9
SYMATTR Value 10k
SYMBOL lm741\\LM741 -720 1088 M180
SYMATTR InstName U8
SYMBOL cap -944 1072 R270
WINDOW 0 32 32 VTop 2
WINDOW 3 0 32 VBottom 2
SYMATTR InstName C5
SYMATTR Value 4.7n
SYMBOL cap -912 880 R270
WINDOW 0 32 32 VTop 2
WINDOW 3 0 32 VBottom 2
SYMATTR InstName C6
SYMATTR Value 4.7n
SYMBOL voltage -704 960 R0
WINDOW 0 24 96 Left 2
WINDOW 3 36 61 Left 2
WINDOW 123 0 0 Left 0
WINDOW 39 0 0 Left 0
SYMATTR InstName V9
SYMATTR Value 5
SYMBOL voltage -704 1104 R0
WINDOW 0 -66 34 Left 2
WINDOW 3 24 16 Left 2
WINDOW 123 0 0 Left 0
WINDOW 39 0 0 Left 0
SYMATTR InstName V10
SYMATTR Value 5
SYMBOL res -1088 1072 R270
WINDOW 0 32 56 VTop 2
WINDOW 3 0 56 VBottom 2
SYMATTR InstName R10
SYMATTR Value 5.1k
SYMBOL res -784 1040 R180
WINDOW 0 36 76 Left 2
WINDOW 3 36 40 Left 2
SYMATTR InstName R11
SYMATTR Value 10k
SYMBOL voltage -1872 368 R180
WINDOW 0 24 96 Left 2
WINDOW 3 24 16 Left 2
WINDOW 123 0 0 Left 0
WINDOW 39 0 0 Left 0
SYMATTR InstName V12
SYMATTR Value 10
SYMBOL voltage -1872 352 R0
WINDOW 123 0 0 Left 0
WINDOW 39 0 0 Left 0
SYMATTR InstName V13
SYMATTR Value 10
SYMBOL voltage -688 112 R0
WINDOW 0 -66 34 Left 2
WINDOW 3 24 16 Left 2
WINDOW 123 0 0 Left 0
WINDOW 39 0 0 Left 0
SYMATTR InstName V4
SYMATTR Value 5
SYMBOL res -432 544 R90
WINDOW 0 0 56 VBottom 2
WINDOW 3 32 56 VTop 2
SYMATTR InstName R4
SYMATTR Value 3.0k
SYMBOL res -432 1072 R90
WINDOW 0 0 56 VBottom 2
WINDOW 3 32 56 VTop 2
SYMATTR InstName R5
SYMATTR Value 6.0k
SYMBOL lm741\\LM741 336 320 M180
SYMATTR InstName U2
SYMBOL voltage 352 192 R0
WINDOW 0 24 96 Left 2
WINDOW 3 36 61 Left 2
WINDOW 123 0 0 Left 0
WINDOW 39 0 0 Left 0
SYMATTR InstName V8
SYMATTR Value 5
SYMBOL voltage 352 336 R0
WINDOW 0 -66 34 Left 2
WINDOW 3 24 16 Left 2
WINDOW 123 0 0 Left 0
WINDOW 39 0 0 Left 0
SYMATTR InstName V11
SYMATTR Value 5
SYMBOL res 272 272 R180
WINDOW 0 36 76 Left 2
WINDOW 3 36 40 Left 2
SYMATTR InstName R2
SYMATTR Value 4.7k
SYMBOL lm741\\LM741 -80 288 M180
SYMATTR InstName U3
SYMBOL voltage -64 160 R0
WINDOW 0 24 96 Left 2
WINDOW 3 36 61 Left 2
WINDOW 123 0 0 Left 0
WINDOW 39 0 0 Left 0
SYMATTR InstName V14
SYMATTR Value 5
SYMBOL voltage -64 304 R0
WINDOW 0 -66 34 Left 2
WINDOW 3 24 16 Left 2
WINDOW 123 0 0 Left 0
WINDOW 39 0 0 Left 0
SYMATTR InstName V15
SYMATTR Value 5
SYMBOL res -144 240 R180
WINDOW 0 36 76 Left 2
WINDOW 3 36 40 Left 2
SYMATTR InstName R12
SYMATTR Value 10k
SYMBOL res 208 272 R90
WINDOW 0 0 56 VBottom 2
WINDOW 3 32 56 VTop 2
SYMATTR InstName R13
SYMATTR Value 10k
SYMBOL res -400 80 R90
WINDOW 0 0 56 VBottom 2
WINDOW 3 32 56 VTop 2
SYMATTR InstName R14
SYMATTR Value 1.5k
SYMBOL res -288 80 R90
WINDOW 0 0 56 VBottom 2
WINDOW 3 32 56 VTop 2
SYMATTR InstName R15
SYMATTR Value 0
SYMBOL res -304 544 R90
WINDOW 0 0 56 VBottom 2
WINDOW 3 32 56 VTop 2
SYMATTR InstName R16
SYMATTR Value 0
SYMBOL res -320 1072 R90
WINDOW 0 0 56 VBottom 2
WINDOW 3 32 56 VTop 2
SYMATTR InstName R17
SYMATTR Value 0
SYMBOL res 416 80 R90
WINDOW 0 0 56 VBottom 2
WINDOW 3 32 56 VTop 2
SYMATTR InstName R18
SYMATTR Value 10k
TEXT -1120 232 Left 2 !.ac dec 1000 1 100000
TEXT -1264 504 Left 2 ;1000Hz
TEXT -1264 1032 Left 2 ;5000Hz
TEXT -1256 24 Left 2 ;200Hz
