Version 4.1
SHEET 1 880 680
WIRE 112 64 32 64
WIRE 288 64 192 64
WIRE 416 64 368 64
WIRE 32 144 32 64
WIRE 416 160 416 64
WIRE 416 176 416 160
WIRE 32 336 32 224
WIRE 224 336 32 336
WIRE 416 336 416 240
WIRE 416 336 224 336
FLAG 128 -64 0
FLAG 176 16 0
FLAG 224 336 0
SYMBOL voltage 32 128 R0
WINDOW 3 -380 104 Left 2
WINDOW 123 0 0 Left 0
WINDOW 39 0 0 Left 0
SYMATTR InstName V1
SYMATTR Value PULSE(-5 5 0 .1p .1p 0.5m 1m)
SYMBOL sw 208 64 R90
SYMATTR InstName S1
SYMBOL res 384 48 R90
WINDOW 0 0 56 VBottom 2
WINDOW 3 32 56 VTop 2
SYMATTR InstName R1
SYMATTR Value 100
SYMBOL voltage 128 32 R180
WINDOW 0 24 96 Left 2
WINDOW 3 24 16 Left 2
WINDOW 123 0 0 Left 0
WINDOW 39 0 0 Left 0
SYMATTR InstName V2
SYMATTR Value PULSE(0 1 0 1p 1p 10)
SYMBOL ind 400 144 R0
SYMATTR InstName L1
SYMATTR Value 10m
TEXT -184 -32 Left 2 !.tran .001
TEXT 192 392 Left 2 !.model SW SW(Ron=.001u, Roff=100Meg)
