Version 4.1
SHEET 1 880 680
WIRE -16 64 -96 64
WIRE 160 64 64 64
WIRE 288 64 240 64
WIRE -96 144 -96 64
WIRE 288 176 288 64
WIRE -96 336 -96 224
WIRE 96 336 -96 336
WIRE 288 336 288 240
WIRE 288 336 96 336
FLAG 0 -64 0
FLAG 48 16 0
FLAG 96 336 0
SYMBOL voltage -96 128 R0
WINDOW 3 -380 104 Left 2
WINDOW 123 0 0 Left 0
WINDOW 39 0 0 Left 0
SYMATTR InstName V1
SYMATTR Value PULSE(-5 5 0 .1p .1p 50u 100u)
SYMBOL sw 80 64 R90
SYMATTR InstName S1
SYMBOL res 256 48 R90
WINDOW 0 0 56 VBottom 2
WINDOW 3 32 56 VTop 2
SYMATTR InstName R1
SYMATTR Value 100k
SYMBOL cap 272 176 R0
SYMATTR InstName C1
SYMATTR Value 100p
SYMBOL voltage 0 32 R180
WINDOW 0 24 96 Left 2
WINDOW 3 24 16 Left 2
WINDOW 123 0 0 Left 0
WINDOW 39 0 0 Left 0
SYMATTR InstName V2
SYMATTR Value PULSE(0 1 0 1p 1p 10)
TEXT 48 400 Left 2 !.model SW SW(Ron=.001u, Roff=100Meg)
TEXT -312 -32 Left 2 !.tran .001
