Version 4.1
SHEET 1 880 680
WIRE -1712 -528 -1712 -544
WIRE -1712 -480 -1712 -528
WIRE -1712 -384 -1712 -400
WIRE -1616 -384 -1712 -384
WIRE -1168 -336 -1216 -336
WIRE -1072 -336 -1088 -336
WIRE -848 -336 -864 -336
WIRE -1712 -272 -1712 -304
WIRE 720 -256 256 -256
WIRE -1504 -176 -1696 -176
WIRE -1216 -176 -1216 -336
WIRE -1216 -176 -1360 -176
WIRE -1152 -176 -1216 -176
WIRE -1072 -160 -1072 -336
WIRE -1072 -160 -1088 -160
WIRE -1008 -160 -1072 -160
WIRE -864 -160 -864 -336
WIRE -864 -160 -928 -160
WIRE -848 -160 -864 -160
WIRE -1152 -144 -1184 -144
WIRE -768 -144 -768 -336
WIRE -768 -144 -784 -144
WIRE -688 -144 -768 -144
WIRE -480 -144 -528 -144
WIRE -384 -144 -400 -144
WIRE -848 -128 -880 -128
WIRE -1184 -112 -1184 -144
WIRE -880 -96 -880 -128
WIRE -688 -64 -688 -144
WIRE -656 -64 -688 -64
WIRE -1696 -32 -1696 -176
WIRE -1088 0 -1120 0
WIRE -992 0 -1008 0
WIRE -1280 16 -1296 16
WIRE -576 16 -576 -64
WIRE -528 16 -528 -144
WIRE -528 16 -576 16
WIRE -464 16 -528 16
WIRE -656 32 -688 32
WIRE -576 32 -576 16
WIRE -384 32 -384 -144
WIRE -384 32 -400 32
WIRE 96 32 -384 32
WIRE -464 48 -496 48
WIRE -496 80 -496 48
WIRE -1504 144 -1696 144
WIRE -1440 144 -1456 144
WIRE -1424 144 -1440 144
WIRE -1296 144 -1296 16
WIRE -1296 144 -1344 144
WIRE -1280 144 -1296 144
WIRE 256 144 256 -256
WIRE 368 144 256 144
WIRE -1200 160 -1200 16
WIRE -1200 160 -1216 160
WIRE -1120 160 -1120 0
WIRE -1072 160 -1120 160
WIRE 576 160 576 48
WIRE 576 160 432 160
WIRE 624 160 624 64
WIRE 720 160 720 -256
WIRE 720 160 624 160
WIRE 768 160 720 160
WIRE -1280 176 -1296 176
WIRE -992 176 -992 0
WIRE -992 176 -1008 176
WIRE -688 176 -688 32
WIRE -688 176 -992 176
WIRE 96 176 96 32
WIRE 96 176 80 176
WIRE 368 176 96 176
WIRE -1072 192 -1104 192
WIRE -1296 208 -1296 176
WIRE -1104 224 -1104 192
WIRE 624 224 624 160
WIRE 576 240 576 160
FLAG 624 400 0
FLAG 624 -112 0
FLAG 768 240 0
FLAG -496 80 0
FLAG -1296 208 0
FLAG -880 -96 0
FLAG -1696 -32 0
FLAG -1696 224 0
FLAG -1184 -112 0
FLAG -1104 224 0
FLAG -1616 -384 0
FLAG -1712 -528 +v
FLAG -1120 -192 +v
FLAG -1248 128 +v
FLAG -1040 144 +v
FLAG -432 0 +v
FLAG 400 128 +v
FLAG -1712 -272 -v
FLAG -1120 -128 -v
FLAG -1040 208 -v
FLAG -1248 192 -v
FLAG -432 64 -v
FLAG 400 192 -v
FLAG -816 -176 +v
FLAG -816 -112 -v
SYMBOL OpAmps\\UniversalOpAmp 400 160 R0
SYMATTR InstName U1
SYMBOL OpAmps\\UniversalOpAmp -432 32 R0
SYMATTR InstName U4
SYMBOL OpAmps\\UniversalOpAmp -816 -144 R0
SYMATTR InstName U5
SYMBOL OpAmps\\UniversalOpAmp -1248 160 R0
SYMATTR InstName U6
SYMBOL nmos 576 320 M180
SYMATTR InstName M1
SYMBOL pmos 576 -32 R0
SYMATTR InstName M2
SYMBOL voltage 624 -16 R180
WINDOW 0 24 96 Left 2
WINDOW 3 24 16 Left 2
WINDOW 123 0 0 Left 0
WINDOW 39 0 0 Left 0
SYMATTR InstName V13
SYMATTR Value 5
SYMBOL voltage 624 304 R0
WINDOW 123 0 0 Left 0
WINDOW 39 0 0 Left 0
SYMATTR InstName V14
SYMATTR Value 5
SYMBOL res 752 144 R0
SYMATTR InstName R1
SYMATTR Value 8
SYMBOL res -384 -160 R90
WINDOW 0 0 56 VBottom 2
WINDOW 3 32 56 VTop 2
SYMATTR InstName R4
SYMATTR Value 10000
SYMBOL res -752 -352 R90
WINDOW 0 0 56 VBottom 2
WINDOW 3 32 56 VTop 2
SYMATTR InstName R5
SYMATTR Value 10000
SYMBOL res -1184 0 R90
WINDOW 0 0 56 VBottom 2
WINDOW 3 32 56 VTop 2
SYMATTR InstName R6
SYMATTR Value 10000
SYMBOL res -1344 -192 R90
WINDOW 0 0 56 VBottom 2
WINDOW 3 32 56 VTop 2
SYMATTR InstName R8
SYMATTR Value 40000
SYMBOL cap -1440 -192 R90
WINDOW 0 0 32 VBottom 2
WINDOW 3 32 32 VTop 2
SYMATTR InstName C1
SYMATTR Value 10µF
SYMBOL cap -1440 128 R90
WINDOW 0 0 32 VBottom 2
WINDOW 3 32 32 VTop 2
SYMATTR InstName C2
SYMATTR Value 10µF
SYMBOL res -560 16 R90
WINDOW 0 0 56 VBottom 2
WINDOW 3 32 56 VTop 2
SYMATTR InstName R11
SYMATTR Value 1000
SYMBOL res -560 -80 R90
WINDOW 0 0 56 VBottom 2
WINDOW 3 32 56 VTop 2
SYMATTR InstName R12
SYMATTR Value 10000
SYMBOL voltage -1696 128 R0
WINDOW 123 24 124 Left 2
WINDOW 39 0 0 Left 0
WINDOW 3 24 44 Left 2
SYMATTR Value2 AC 0.003
SYMATTR Value SINE(0 .0015)
SYMATTR InstName V16
SYMBOL OpAmps\\UniversalOpAmp -1120 -160 R0
SYMATTR InstName U3
SYMBOL res -1072 -352 R90
WINDOW 0 0 56 VBottom 2
WINDOW 3 32 56 VTop 2
SYMATTR InstName R3
SYMATTR Value 56000
SYMBOL res -912 -176 R90
WINDOW 0 0 56 VBottom 2
WINDOW 3 32 56 VTop 2
SYMATTR InstName R9
SYMATTR Value 10000
SYMBOL OpAmps\\UniversalOpAmp -1040 176 R0
SYMATTR InstName U2
SYMBOL res -992 -16 R90
WINDOW 0 0 56 VBottom 2
WINDOW 3 32 56 VTop 2
SYMATTR InstName R2
SYMATTR Value 100000
SYMBOL res -1328 128 R90
WINDOW 0 0 56 VBottom 2
WINDOW 3 32 56 VTop 2
SYMATTR InstName R10
SYMATTR Value 1000
SYMBOL res -1104 144 R90
WINDOW 0 0 56 VBottom 2
WINDOW 3 32 56 VTop 2
SYMATTR InstName R13
SYMATTR Value 15000
SYMBOL voltage -1712 -384 R180
WINDOW 0 24 96 Left 2
WINDOW 3 24 16 Left 2
WINDOW 123 0 0 Left 0
WINDOW 39 0 0 Left 0
SYMATTR InstName V1
SYMATTR Value 5
SYMBOL voltage -1712 -400 R0
WINDOW 123 0 0 Left 0
WINDOW 39 0 0 Left 0
SYMATTR InstName V2
SYMATTR Value 5
TEXT -1408 -544 Left 2 !.ac lin 100 10 1000000
TEXT -1408 -512 Left 2 ;.tran 0
