Version 4.1
SHEET 1 880 680
WIRE -1232 -432 -1232 -448
WIRE -1232 -416 -1232 -432
WIRE -928 -336 -944 -336
WIRE -1232 -304 -1232 -336
WIRE -1136 -304 -1232 -304
WIRE 720 -256 256 -256
WIRE -1232 -192 -1232 -224
WIRE -1232 -176 -1232 -192
WIRE -1232 -160 -1232 -176
WIRE -944 -160 -944 -336
WIRE -928 -160 -944 -160
WIRE -848 -144 -848 -336
WIRE -848 -144 -864 -144
WIRE -688 -144 -848 -144
WIRE -480 -144 -528 -144
WIRE -384 -144 -400 -144
WIRE -928 -128 -960 -128
WIRE -960 -96 -960 -128
WIRE -288 -80 -304 -80
WIRE -688 -64 -688 -144
WIRE -656 -64 -688 -64
WIRE -32 -16 -48 -16
WIRE 80 -16 48 -16
WIRE -432 0 -432 -48
WIRE -576 16 -576 -64
WIRE -528 16 -528 -144
WIRE -528 16 -576 16
WIRE -464 16 -528 16
WIRE -928 32 -944 32
WIRE -656 32 -688 32
WIRE -576 32 -576 16
WIRE -384 32 -384 -144
WIRE -384 32 -400 32
WIRE -304 32 -304 -80
WIRE -464 48 -496 48
WIRE -256 64 -256 32
WIRE -496 80 -496 48
WIRE -432 80 -432 64
WIRE -304 80 -304 32
WIRE -288 80 -304 80
WIRE -208 96 -208 -80
WIRE -208 96 -224 96
WIRE -128 96 -208 96
WIRE -288 112 -320 112
WIRE 400 128 400 80
WIRE -896 144 -896 112
WIRE -320 144 -320 112
WIRE -256 144 -256 128
WIRE 16 144 16 128
WIRE 256 144 256 -256
WIRE 368 144 256 144
WIRE -944 160 -944 32
WIRE -944 160 -960 160
WIRE -928 160 -944 160
WIRE -256 160 -256 144
WIRE -128 160 -128 96
WIRE -48 160 -48 -16
WIRE -16 160 -48 160
WIRE 576 160 576 48
WIRE 576 160 432 160
WIRE 624 160 624 64
WIRE 720 160 720 -256
WIRE 720 160 624 160
WIRE 768 160 720 160
WIRE -848 176 -848 32
WIRE -848 176 -864 176
WIRE -688 176 -688 32
WIRE -688 176 -848 176
WIRE 80 176 80 -16
WIRE 80 176 48 176
WIRE 368 176 80 176
WIRE -928 192 -944 192
WIRE -16 192 -64 192
WIRE -944 224 -944 192
WIRE -896 224 -896 208
WIRE -64 224 -64 192
WIRE 400 224 400 192
WIRE 624 224 624 160
WIRE 16 240 16 208
WIRE 400 240 400 224
WIRE 576 240 576 160
FLAG -896 -32 0
FLAG -896 -256 0
FLAG 768 240 0
FLAG -496 80 0
FLAG -320 144 0
FLAG -944 224 0
FLAG -960 -96 0
FLAG -64 224 0
FLAG -1088 -80 0
FLAG -1104 240 0
FLAG -1232 -176 0
FLAG -1232 -432 0
FLAG -1136 -304 0
FLAG -1232 -448 +VCC
FLAG -432 -48 +VCC
FLAG -256 32 +VCC
FLAG 16 128 +VCC
FLAG 400 80 +VCC
FLAG -1232 -192 -VCC
FLAG -432 80 -VCC
FLAG -256 144 -VCC
FLAG 16 240 -VCC
FLAG 400 224 -VCC
FLAG 624 320 -VCC
FLAG 624 -32 +VCC
FLAG -896 112 +VCC
FLAG -896 224 -VCC
SYMBOL OpAmps\\UniversalOpAmp 400 160 R0
SYMATTR InstName U1
SYMBOL OpAmps\\UniversalOpAmp 16 176 R0
SYMATTR InstName U2
SYMBOL OpAmps\\UniversalOpAmp -256 96 R0
SYMATTR InstName U3
SYMBOL OpAmps\\UniversalOpAmp -432 32 R0
SYMATTR InstName U4
SYMBOL OpAmps\\UniversalOpAmp -896 -144 R0
SYMATTR InstName U5
SYMBOL OpAmps\\UniversalOpAmp -896 176 R0
SYMATTR InstName U6
SYMBOL nmos 576 320 M180
SYMATTR InstName M1
SYMBOL pmos 576 -32 R0
SYMATTR InstName M2
SYMBOL voltage -896 -128 R0
WINDOW 123 0 0 Left 0
WINDOW 39 0 0 Left 0
SYMATTR InstName V6
SYMATTR Value 5
SYMBOL voltage -896 -160 R180
WINDOW 0 24 96 Left 2
WINDOW 3 24 16 Left 2
WINDOW 123 0 0 Left 0
WINDOW 39 0 0 Left 0
SYMATTR InstName V8
SYMATTR Value 5
SYMBOL res 752 144 R0
SYMATTR InstName R1
SYMATTR Value 8
SYMBOL res 64 -32 R90
WINDOW 0 0 56 VBottom 2
WINDOW 3 32 56 VTop 2
SYMATTR InstName R2
SYMATTR Value 10000
SYMBOL res -192 -96 R90
WINDOW 0 0 56 VBottom 2
WINDOW 3 32 56 VTop 2
SYMATTR InstName R3
SYMATTR Value 75000
SYMBOL res -384 -160 R90
WINDOW 0 0 56 VBottom 2
WINDOW 3 32 56 VTop 2
SYMATTR InstName R4
SYMATTR Value 10000
SYMBOL res -832 -352 R90
WINDOW 0 0 56 VBottom 2
WINDOW 3 32 56 VTop 2
SYMATTR InstName R5
SYMATTR Value 10000
SYMBOL res -832 16 R90
WINDOW 0 0 56 VBottom 2
WINDOW 3 32 56 VTop 2
SYMATTR InstName R6
SYMATTR Value 0
SYMBOL res -944 144 R90
WINDOW 0 0 56 VBottom 2
WINDOW 3 32 56 VTop 2
SYMATTR InstName R7
SYMATTR Value 1000
SYMBOL res -928 -176 R90
WINDOW 0 0 56 VBottom 2
WINDOW 3 32 56 VTop 2
SYMATTR InstName R8
SYMATTR Value 10000
SYMBOL res -288 16 R90
WINDOW 0 0 56 VBottom 2
WINDOW 3 32 56 VTop 2
SYMATTR InstName R9
SYMATTR Value 10000
SYMBOL res -32 144 R90
WINDOW 0 0 56 VBottom 2
WINDOW 3 32 56 VTop 2
SYMATTR InstName R10
SYMATTR Value 10000
SYMBOL cap -1024 -176 R90
WINDOW 0 0 32 VBottom 2
WINDOW 3 32 32 VTop 2
SYMATTR InstName C1
SYMATTR Value 10µF
SYMBOL cap -1040 144 R90
WINDOW 0 0 32 VBottom 2
WINDOW 3 32 32 VTop 2
SYMATTR InstName C2
SYMATTR Value 10µF
SYMBOL res -560 16 R90
WINDOW 0 0 56 VBottom 2
WINDOW 3 32 56 VTop 2
SYMATTR InstName R11
SYMATTR Value 1000
SYMBOL res -560 -80 R90
WINDOW 0 0 56 VBottom 2
WINDOW 3 32 56 VTop 2
SYMATTR InstName R12
SYMATTR Value 20000
SYMBOL voltage -1088 -176 R0
WINDOW 123 24 44 Left 2
WINDOW 39 0 0 Left 0
SYMATTR Value2 AC 1.5
SYMATTR InstName V15
SYMATTR Value ""
SYMBOL voltage -1104 144 R0
WINDOW 123 24 124 Left 2
WINDOW 39 0 0 Left 0
SYMATTR Value2 AC 0.003
SYMATTR InstName V16
SYMATTR Value ""
SYMBOL voltage -1232 -320 R0
WINDOW 123 0 0 Left 0
WINDOW 39 0 0 Left 0
SYMATTR InstName V1
SYMATTR Value 5
SYMBOL voltage -1232 -320 R180
WINDOW 0 24 96 Left 2
WINDOW 3 24 16 Left 2
WINDOW 123 0 0 Left 0
WINDOW 39 0 0 Left 0
SYMATTR InstName V2
SYMATTR Value 5
TEXT -1408 -544 Left 2 !.ac lin 100 10 1000000
TEXT -1408 -512 Left 2 ;.tran 0
