Version 4.1
SHEET 1 880 680
WIRE 64 112 -16 112
WIRE 240 112 144 112
WIRE 416 112 320 112
WIRE -16 160 -16 112
WIRE 416 176 416 112
WIRE -16 304 -16 240
WIRE 0 304 -16 304
WIRE 416 304 416 240
WIRE 416 304 0 304
FLAG 0 304 0
SYMBOL voltage -16 144 R0
WINDOW 123 24 114 Left 2
WINDOW 39 0 0 Left 0
SYMATTR Value2 AC 1.005
SYMATTR InstName V1
SYMATTR Value ""
SYMBOL res 160 96 R90
WINDOW 0 0 56 VBottom 2
WINDOW 3 32 56 VTop 2
SYMATTR InstName R1
SYMATTR Value 200
SYMBOL ind 336 96 R90
WINDOW 0 5 56 VBottom 2
WINDOW 3 32 56 VTop 2
SYMATTR InstName L1
SYMATTR Value 10m
SYMBOL cap 400 176 R0
SYMATTR InstName C1
SYMATTR Value 47n
TEXT -112 56 Left 2 !.ac dec 1000 1 10Meg
